Code/tensor_power_flow/tau_benchmark_results/validation_method_b_all_w1.0_wq1.0_20260720_131639.csv
name,n_bus,n_pv,n_pq,pv_ratio,rx_ratio,eta,rho,rho_diag,rho_corr,contraction,nr_converged,nr_iter,nr_time_ms,tpf_converged,tpf_outer_iter,tpf_inner_iter_total,tpf_time_ms,max_v_error,mean_v_error,max_angle_error_deg,max_pv_v_error,speedup,passed,error
sz_75_r000,74,1,73,0.013513513513513514,5.822222222222223,0.27852459450570394,1.7332418111840142,1.7332418933342542,1.7332418111840142,0.9363033012328251,True,4,19.546399999853747,False,200,200,205.1394000000073,8.047581268044723e-09,7.472240424008889e-10,6.3843900655058405e-06,1.3747834426425243e-08,0.09528349990227646,False,
sz_75_r005,74,4,70,0.05405405405405406,5.822222222222223,0.6866087219823002,1.9888286489095035,1.9195234965428667,1.9888286489095035,0.9342692125142507,True,4,19.474699999591394,True,199,199,257.19069999922795,5.689793747265526e-09,9.086422110222642e-10,4.321183602939982e-06,9.580051862911887e-09,0.07572085615712332,True,
sz_75_r010,74,8,66,0.10810810810810811,5.822222222222223,0.38079209267142916,1.9815553454049994,1.949262197550793,1.9815553454049994,0.9442185071938959,True,4,18.84260000042559,False,200,200,222.79700000035518,3.726659980607394e-08,3.644675481837976e-09,3.433390167417727e-05,7.285906522547236e-08,0.08457295206127351,False,
sz_75_r020,74,15,59,0.20270270270270271,5.822222222222223,1.4596172449260172,2.021715363686441,1.9879513241445954,2.021715363686441,0.9701550560895897,True,4,17.541599999276514,False,200,200,252.67450000046665,2.0771786267692605e-06,1.6438120058380656e-07,0.00979053192297874,1.3962052576976802e-05,0.06942370519876014,False,
sz_75_r030,74,22,52,0.2972972972972973,5.822222222222223,4.4374435007715185,2.23266514795892,1.9744441320205421,2.23266514795892,0.9679082380669185,True,6,22.340800000165473,False,200,200,254.05219999993278,3.611798559788326e-06,3.0489651094858116e-07,0.012271134002701523,1.23874188364681e-05,0.08793783324911725,False,
sz_75_r040,74,30,44,0.40540540540540543,5.822222222222223,2.9854589940494076,2.2182580116104162,2.185179672072743,2.2182580116104162,0.9696122018610074,True,5,19.26180000009481,False,200,200,274.5137000001705,2.146234008071346e-06,2.8099925449711504e-07,0.016715575721564235,1.6442416716611064e-05,0.0701669898445245,False,
sz_75_r050,74,38,36,0.5135135135135135,5.822222222222223,7.231158945942072,2.274082210562346,2.094058275661909,2.274082210562346,0.9827618805411327,True,6,20.621800000299118,False,200,200,329.7662000004493,2.025199731314764e-05,2.045034405475534e-06,0.24420429524204668,0.0002482427154457678,0.0625346078532943,False,
sz_75_r060,74,45,29,0.6081081081081081,5.822222222222223,4.548795625656279,2.2119079047762797,2.132026398237899,2.2119079047762797,0.9775906584355576,True,5,21.14510000046721,False,200,200,336.50180000040564,7.087685022888479e-06,4.3974180203043857e-07,0.03947474738249035,8.872210688837256e-05,0.06283799967917474,False,
